* NGSPICE file created from uart.ext - technology: sky130A

* Black-box entry subcircuit for sky130_fd_sc_hd__tapvpwrvgnd_1 abstract view
.subckt sky130_fd_sc_hd__tapvpwrvgnd_1 VGND VPWR
.ends

* Black-box entry subcircuit for sky130_fd_sc_hd__decap_3 abstract view
.subckt sky130_fd_sc_hd__decap_3 VGND VNB VPB VPWR
.ends

* Black-box entry subcircuit for sky130_fd_sc_hd__decap_8 abstract view
.subckt sky130_fd_sc_hd__decap_8 VGND VNB VPB VPWR
.ends

* Black-box entry subcircuit for sky130_fd_sc_hd__or4_1 abstract view
.subckt sky130_fd_sc_hd__or4_1 A B C D VGND VNB VPB VPWR X
.ends

* Black-box entry subcircuit for sky130_fd_sc_hd__dfrtp_2 abstract view
.subckt sky130_fd_sc_hd__dfrtp_2 CLK D RESET_B VGND VNB VPB VPWR Q
.ends

* Black-box entry subcircuit for sky130_fd_sc_hd__fill_1 abstract view
.subckt sky130_fd_sc_hd__fill_1 VGND VNB VPB VPWR
.ends

* Black-box entry subcircuit for sky130_ef_sc_hd__decap_12 abstract view
.subckt sky130_ef_sc_hd__decap_12 VPWR VGND VPB VNB
.ends

* Black-box entry subcircuit for sky130_fd_sc_hd__dfrtp_4 abstract view
.subckt sky130_fd_sc_hd__dfrtp_4 CLK D RESET_B VGND VNB VPB VPWR Q
.ends

* Black-box entry subcircuit for sky130_fd_sc_hd__a22oi_1 abstract view
.subckt sky130_fd_sc_hd__a22oi_1 A1 A2 B1 B2 VGND VNB VPB VPWR Y
.ends

* Black-box entry subcircuit for sky130_fd_sc_hd__o31a_1 abstract view
.subckt sky130_fd_sc_hd__o31a_1 A1 A2 A3 B1 VGND VNB VPB VPWR X
.ends

* Black-box entry subcircuit for sky130_fd_sc_hd__a41oi_1 abstract view
.subckt sky130_fd_sc_hd__a41oi_1 A1 A2 A3 A4 B1 VGND VNB VPB VPWR Y
.ends

* Black-box entry subcircuit for sky130_fd_sc_hd__buf_1 abstract view
.subckt sky130_fd_sc_hd__buf_1 A VGND VNB VPB VPWR X
.ends

* Black-box entry subcircuit for sky130_fd_sc_hd__dfrtp_1 abstract view
.subckt sky130_fd_sc_hd__dfrtp_1 CLK D RESET_B VGND VNB VPB VPWR Q
.ends

* Black-box entry subcircuit for sky130_fd_sc_hd__a31o_1 abstract view
.subckt sky130_fd_sc_hd__a31o_1 A1 A2 A3 B1 VGND VNB VPB VPWR X
.ends

* Black-box entry subcircuit for sky130_fd_sc_hd__nor3_1 abstract view
.subckt sky130_fd_sc_hd__nor3_1 A B C VGND VNB VPB VPWR Y
.ends

* Black-box entry subcircuit for sky130_fd_sc_hd__o211a_1 abstract view
.subckt sky130_fd_sc_hd__o211a_1 A1 A2 B1 C1 VGND VNB VPB VPWR X
.ends

* Black-box entry subcircuit for sky130_fd_sc_hd__nand4_1 abstract view
.subckt sky130_fd_sc_hd__nand4_1 A B C D VGND VNB VPB VPWR Y
.ends

* Black-box entry subcircuit for sky130_fd_sc_hd__and4_1 abstract view
.subckt sky130_fd_sc_hd__and4_1 A B C D VGND VNB VPB VPWR X
.ends

* Black-box entry subcircuit for sky130_fd_sc_hd__decap_4 abstract view
.subckt sky130_fd_sc_hd__decap_4 VGND VNB VPB VPWR
.ends

* Black-box entry subcircuit for sky130_fd_sc_hd__fill_2 abstract view
.subckt sky130_fd_sc_hd__fill_2 VGND VNB VPB VPWR
.ends

* Black-box entry subcircuit for sky130_fd_sc_hd__a211o_1 abstract view
.subckt sky130_fd_sc_hd__a211o_1 A1 A2 B1 C1 VGND VNB VPB VPWR X
.ends

* Black-box entry subcircuit for sky130_fd_sc_hd__dfstp_1 abstract view
.subckt sky130_fd_sc_hd__dfstp_1 CLK D SET_B VGND VNB VPB VPWR Q
.ends

* Black-box entry subcircuit for sky130_fd_sc_hd__nand4b_1 abstract view
.subckt sky130_fd_sc_hd__nand4b_1 A_N B C D VGND VNB VPB VPWR Y
.ends

* Black-box entry subcircuit for sky130_fd_sc_hd__or4b_1 abstract view
.subckt sky130_fd_sc_hd__or4b_1 A B C D_N VGND VNB VPB VPWR X
.ends

* Black-box entry subcircuit for sky130_fd_sc_hd__nand3_1 abstract view
.subckt sky130_fd_sc_hd__nand3_1 A B C VGND VNB VPB VPWR Y
.ends

* Black-box entry subcircuit for sky130_fd_sc_hd__and2b_1 abstract view
.subckt sky130_fd_sc_hd__and2b_1 A_N B VGND VNB VPB VPWR X
.ends

* Black-box entry subcircuit for sky130_fd_sc_hd__and2_1 abstract view
.subckt sky130_fd_sc_hd__and2_1 A B VGND VNB VPB VPWR X
.ends

* Black-box entry subcircuit for sky130_fd_sc_hd__and3_1 abstract view
.subckt sky130_fd_sc_hd__and3_1 A B C VGND VNB VPB VPWR X
.ends

* Black-box entry subcircuit for sky130_fd_sc_hd__a32oi_1 abstract view
.subckt sky130_fd_sc_hd__a32oi_1 A1 A2 A3 B1 B2 VGND VNB VPB VPWR Y
.ends

* Black-box entry subcircuit for sky130_fd_sc_hd__and4bb_1 abstract view
.subckt sky130_fd_sc_hd__and4bb_1 A_N B_N C D VGND VNB VPB VPWR X
.ends

* Black-box entry subcircuit for sky130_fd_sc_hd__nand2_1 abstract view
.subckt sky130_fd_sc_hd__nand2_1 A B VGND VNB VPB VPWR Y
.ends

* Black-box entry subcircuit for sky130_fd_sc_hd__a32o_1 abstract view
.subckt sky130_fd_sc_hd__a32o_1 A1 A2 A3 B1 B2 VGND VNB VPB VPWR X
.ends

* Black-box entry subcircuit for sky130_fd_sc_hd__a21oi_1 abstract view
.subckt sky130_fd_sc_hd__a21oi_1 A1 A2 B1 VGND VNB VPB VPWR Y
.ends

* Black-box entry subcircuit for sky130_fd_sc_hd__a21boi_1 abstract view
.subckt sky130_fd_sc_hd__a21boi_1 A1 A2 B1_N VGND VNB VPB VPWR Y
.ends

* Black-box entry subcircuit for sky130_fd_sc_hd__conb_1 abstract view
.subckt sky130_fd_sc_hd__conb_1 VGND VNB VPB VPWR HI LO
.ends

* Black-box entry subcircuit for sky130_fd_sc_hd__o211ai_1 abstract view
.subckt sky130_fd_sc_hd__o211ai_1 A1 A2 B1 C1 VGND VNB VPB VPWR Y
.ends

* Black-box entry subcircuit for sky130_fd_sc_hd__decap_6 abstract view
.subckt sky130_fd_sc_hd__decap_6 VGND VNB VPB VPWR
.ends

* Black-box entry subcircuit for sky130_fd_sc_hd__o32a_1 abstract view
.subckt sky130_fd_sc_hd__o32a_1 A1 A2 A3 B1 B2 VGND VNB VPB VPWR X
.ends

* Black-box entry subcircuit for sky130_fd_sc_hd__o22ai_2 abstract view
.subckt sky130_fd_sc_hd__o22ai_2 A1 A2 B1 B2 VGND VNB VPB VPWR Y
.ends

* Black-box entry subcircuit for sky130_fd_sc_hd__o21a_1 abstract view
.subckt sky130_fd_sc_hd__o21a_1 A1 A2 B1 VGND VNB VPB VPWR X
.ends

* Black-box entry subcircuit for sky130_fd_sc_hd__inv_2 abstract view
.subckt sky130_fd_sc_hd__inv_2 A VGND VNB VPB VPWR Y
.ends

* Black-box entry subcircuit for sky130_fd_sc_hd__o2bb2ai_1 abstract view
.subckt sky130_fd_sc_hd__o2bb2ai_1 A1_N A2_N B1 B2 VGND VNB VPB VPWR Y
.ends

* Black-box entry subcircuit for sky130_fd_sc_hd__o22a_1 abstract view
.subckt sky130_fd_sc_hd__o22a_1 A1 A2 B1 B2 VGND VNB VPB VPWR X
.ends

* Black-box entry subcircuit for sky130_fd_sc_hd__o2111ai_1 abstract view
.subckt sky130_fd_sc_hd__o2111ai_1 A1 A2 B1 C1 D1 VGND VNB VPB VPWR Y
.ends

* Black-box entry subcircuit for sky130_fd_sc_hd__xor2_1 abstract view
.subckt sky130_fd_sc_hd__xor2_1 A B VGND VNB VPB VPWR X
.ends

* Black-box entry subcircuit for sky130_fd_sc_hd__nor2_1 abstract view
.subckt sky130_fd_sc_hd__nor2_1 A B VGND VNB VPB VPWR Y
.ends

* Black-box entry subcircuit for sky130_fd_sc_hd__a21o_1 abstract view
.subckt sky130_fd_sc_hd__a21o_1 A1 A2 B1 VGND VNB VPB VPWR X
.ends

* Black-box entry subcircuit for sky130_fd_sc_hd__o311ai_1 abstract view
.subckt sky130_fd_sc_hd__o311ai_1 A1 A2 A3 B1 C1 VGND VNB VPB VPWR Y
.ends

* Black-box entry subcircuit for sky130_fd_sc_hd__o31ai_1 abstract view
.subckt sky130_fd_sc_hd__o31ai_1 A1 A2 A3 B1 VGND VNB VPB VPWR Y
.ends

* Black-box entry subcircuit for sky130_fd_sc_hd__a21o_2 abstract view
.subckt sky130_fd_sc_hd__a21o_2 A1 A2 B1 VGND VNB VPB VPWR X
.ends

* Black-box entry subcircuit for sky130_fd_sc_hd__a21bo_1 abstract view
.subckt sky130_fd_sc_hd__a21bo_1 A1 A2 B1_N VGND VNB VPB VPWR X
.ends

* Black-box entry subcircuit for sky130_fd_sc_hd__o211ai_2 abstract view
.subckt sky130_fd_sc_hd__o211ai_2 A1 A2 B1 C1 VGND VNB VPB VPWR Y
.ends

* Black-box entry subcircuit for sky130_fd_sc_hd__o2bb2a_1 abstract view
.subckt sky130_fd_sc_hd__o2bb2a_1 A1_N A2_N B1 B2 VGND VNB VPB VPWR X
.ends

* Black-box entry subcircuit for sky130_fd_sc_hd__clkbuf_1 abstract view
.subckt sky130_fd_sc_hd__clkbuf_1 A VGND VNB VPB VPWR X
.ends

* Black-box entry subcircuit for sky130_fd_sc_hd__nand3b_1 abstract view
.subckt sky130_fd_sc_hd__nand3b_1 A_N B C VGND VNB VPB VPWR Y
.ends

* Black-box entry subcircuit for sky130_fd_sc_hd__o311a_1 abstract view
.subckt sky130_fd_sc_hd__o311a_1 A1 A2 A3 B1 C1 VGND VNB VPB VPWR X
.ends

* Black-box entry subcircuit for sky130_fd_sc_hd__buf_2 abstract view
.subckt sky130_fd_sc_hd__buf_2 A VGND VNB VPB VPWR X
.ends

* Black-box entry subcircuit for sky130_fd_sc_hd__o21ai_2 abstract view
.subckt sky130_fd_sc_hd__o21ai_2 A1 A2 B1 VGND VNB VPB VPWR Y
.ends

* Black-box entry subcircuit for sky130_fd_sc_hd__or3b_1 abstract view
.subckt sky130_fd_sc_hd__or3b_1 A B C_N VGND VNB VPB VPWR X
.ends

* Black-box entry subcircuit for sky130_fd_sc_hd__and4b_1 abstract view
.subckt sky130_fd_sc_hd__and4b_1 A_N B C D VGND VNB VPB VPWR X
.ends

* Black-box entry subcircuit for sky130_fd_sc_hd__a311o_1 abstract view
.subckt sky130_fd_sc_hd__a311o_1 A1 A2 A3 B1 C1 VGND VNB VPB VPWR X
.ends

* Black-box entry subcircuit for sky130_fd_sc_hd__clkbuf_16 abstract view
.subckt sky130_fd_sc_hd__clkbuf_16 A VGND VNB VPB VPWR X
.ends

* Black-box entry subcircuit for sky130_fd_sc_hd__or3_1 abstract view
.subckt sky130_fd_sc_hd__or3_1 A B C VGND VNB VPB VPWR X
.ends

* Black-box entry subcircuit for sky130_fd_sc_hd__nand4_4 abstract view
.subckt sky130_fd_sc_hd__nand4_4 A B C D VGND VNB VPB VPWR Y
.ends

* Black-box entry subcircuit for sky130_fd_sc_hd__xnor2_1 abstract view
.subckt sky130_fd_sc_hd__xnor2_1 A B VGND VNB VPB VPWR Y
.ends

* Black-box entry subcircuit for sky130_fd_sc_hd__buf_12 abstract view
.subckt sky130_fd_sc_hd__buf_12 A VGND VNB VPB VPWR X
.ends

* Black-box entry subcircuit for sky130_fd_sc_hd__o21ba_1 abstract view
.subckt sky130_fd_sc_hd__o21ba_1 A1 A2 B1_N VGND VNB VPB VPWR X
.ends

* Black-box entry subcircuit for sky130_fd_sc_hd__o21ai_1 abstract view
.subckt sky130_fd_sc_hd__o21ai_1 A1 A2 B1 VGND VNB VPB VPWR Y
.ends

* Black-box entry subcircuit for sky130_fd_sc_hd__a31oi_1 abstract view
.subckt sky130_fd_sc_hd__a31oi_1 A1 A2 A3 B1 VGND VNB VPB VPWR Y
.ends

* Black-box entry subcircuit for sky130_fd_sc_hd__o21bai_1 abstract view
.subckt sky130_fd_sc_hd__o21bai_1 A1 A2 B1_N VGND VNB VPB VPWR Y
.ends

* Black-box entry subcircuit for sky130_fd_sc_hd__o221ai_2 abstract view
.subckt sky130_fd_sc_hd__o221ai_2 A1 A2 B1 B2 C1 VGND VNB VPB VPWR Y
.ends

* Black-box entry subcircuit for sky130_fd_sc_hd__buf_4 abstract view
.subckt sky130_fd_sc_hd__buf_4 A VGND VNB VPB VPWR X
.ends

* Black-box entry subcircuit for sky130_fd_sc_hd__o2111a_1 abstract view
.subckt sky130_fd_sc_hd__o2111a_1 A1 A2 B1 C1 D1 VGND VNB VPB VPWR X
.ends

* Black-box entry subcircuit for sky130_fd_sc_hd__o221ai_1 abstract view
.subckt sky130_fd_sc_hd__o221ai_1 A1 A2 B1 B2 C1 VGND VNB VPB VPWR Y
.ends

* Black-box entry subcircuit for sky130_fd_sc_hd__and2b_2 abstract view
.subckt sky130_fd_sc_hd__and2b_2 A_N B VGND VNB VPB VPWR X
.ends

* Black-box entry subcircuit for sky130_fd_sc_hd__clkbuf_4 abstract view
.subckt sky130_fd_sc_hd__clkbuf_4 A VGND VNB VPB VPWR X
.ends

* Black-box entry subcircuit for sky130_fd_sc_hd__mux2_1 abstract view
.subckt sky130_fd_sc_hd__mux2_1 A0 A1 S VGND VNB VPB VPWR X
.ends

* Black-box entry subcircuit for sky130_fd_sc_hd__and4_2 abstract view
.subckt sky130_fd_sc_hd__and4_2 A B C D VGND VNB VPB VPWR X
.ends

* Black-box entry subcircuit for sky130_fd_sc_hd__nor3b_1 abstract view
.subckt sky130_fd_sc_hd__nor3b_1 A B C_N VGND VNB VPB VPWR Y
.ends

* Black-box entry subcircuit for sky130_fd_sc_hd__o22ai_1 abstract view
.subckt sky130_fd_sc_hd__o22ai_1 A1 A2 B1 B2 VGND VNB VPB VPWR Y
.ends

* Black-box entry subcircuit for sky130_fd_sc_hd__nand2b_1 abstract view
.subckt sky130_fd_sc_hd__nand2b_1 A_N B VGND VNB VPB VPWR Y
.ends

* Black-box entry subcircuit for sky130_fd_sc_hd__or4bb_1 abstract view
.subckt sky130_fd_sc_hd__or4bb_1 A B C_N D_N VGND VNB VPB VPWR X
.ends

.subckt uart DATA_IN_Rx DATA_IN_Tx[0] DATA_IN_Tx[1] DATA_IN_Tx[2] DATA_IN_Tx[3] DATA_IN_Tx[4]
+ DATA_IN_Tx[5] DATA_IN_Tx[6] DATA_IN_Tx[7] DATA_OUT_Rx[0] DATA_OUT_Rx[1] DATA_OUT_Rx[2]
+ DATA_OUT_Rx[3] DATA_OUT_Rx[4] DATA_OUT_Rx[5] DATA_OUT_Rx[6] DATA_OUT_Rx[7] DATA_OUT_Rx[8]
+ DATA_OUT_Rx[9] DATA_OUT_Tx EN IRQ_Rx IRQ_Tx RST UART_AVAIL UART_BITS UART_PARITY
+ UART_WRITE VGND VPWR bitrate[0] bitrate[1] bitrate[2] bitrate[3] clk_CPU uart_clock
XTAP_TAPCELL_ROW_24_117 VGND VPWR sky130_fd_sc_hd__tapvpwrvgnd_1
XPHY_EDGE_ROW_21_Left_48 VGND VGND VPWR VPWR sky130_fd_sc_hd__decap_3
XFILLER_0_3_39 VGND VGND VPWR VPWR sky130_fd_sc_hd__decap_8
X_294_ uart3.state\[2\] uart3.state\[3\] net1 _035_ VGND VGND VPWR VPWR _114_ sky130_fd_sc_hd__or4_1
X_363_ clknet_1_0__leaf_clk_CPU _009_ net11 VGND VGND VPWR VPWR uart1.counter\[1\]
+ sky130_fd_sc_hd__dfrtp_2
XTAP_TAPCELL_ROW_21_109 VGND VPWR sky130_fd_sc_hd__tapvpwrvgnd_1
XTAP_TAPCELL_ROW_12_87 VGND VPWR sky130_fd_sc_hd__tapvpwrvgnd_1
XFILLER_0_13_51 VGND VGND VPWR VPWR sky130_fd_sc_hd__fill_1
XFILLER_0_18_29 VPWR VGND VPWR VGND sky130_ef_sc_hd__decap_12
XFILLER_0_18_18 VGND VGND VPWR VPWR sky130_fd_sc_hd__decap_8
X_346_ net31 uart3.next\[0\] net11 VGND VGND VPWR VPWR uart3.state\[0\] sky130_fd_sc_hd__dfrtp_4
XTAP_TAPCELL_ROW_8_77 VGND VPWR sky130_fd_sc_hd__tapvpwrvgnd_1
X_277_ _080_ uart1.counter\[7\] _152_ _086_ VGND VGND VPWR VPWR _103_ sky130_fd_sc_hd__a22oi_1
XFILLER_0_4_71 VPWR VGND VPWR VGND sky130_ef_sc_hd__decap_12
X_200_ uart3.state\[2\] uart3.state\[3\] uart3.state\[1\] _029_ VGND VGND VPWR VPWR
+ _030_ sky130_fd_sc_hd__o31a_1
XPHY_EDGE_ROW_24_Left_51 VGND VGND VPWR VPWR sky130_fd_sc_hd__decap_3
XFILLER_0_0_29 VPWR VGND VPWR VGND sky130_ef_sc_hd__decap_12
XFILLER_0_10_85 VPWR VGND VPWR VGND sky130_ef_sc_hd__decap_12
X_329_ uart1.counter\[2\] uart1.counter\[3\] _125_ _136_ uart1.counter\[7\] VGND VGND
+ VPWR VPWR _140_ sky130_fd_sc_hd__a41oi_1
XFILLER_0_16_139 VGND VGND VPWR VPWR sky130_fd_sc_hd__fill_1
XFILLER_0_26_29 VPWR VGND VPWR VGND sky130_ef_sc_hd__decap_12
XFILLER_0_6_39 VPWR VGND VPWR VGND sky130_ef_sc_hd__decap_12
XFILLER_0_12_153 VGND VGND VPWR VPWR sky130_fd_sc_hd__decap_3
Xoutput31 net31 VGND VGND VPWR VPWR uart_clock sky130_fd_sc_hd__buf_1
Xoutput20 net20 VGND VGND VPWR VPWR DATA_OUT_Rx[1] sky130_fd_sc_hd__buf_1
XTAP_TAPCELL_ROW_24_118 VGND VPWR sky130_fd_sc_hd__tapvpwrvgnd_1
X_362_ clknet_1_0__leaf_clk_CPU _008_ net11 VGND VGND VPWR VPWR uart1.counter\[0\]
+ sky130_fd_sc_hd__dfrtp_1
XFILLER_0_2_109 VPWR VGND VPWR VGND sky130_ef_sc_hd__decap_12
X_293_ uart3.state\[0\] uart3.state\[1\] _028_ net20 VGND VGND VPWR VPWR _113_ sky130_fd_sc_hd__a31o_1
XTAP_TAPCELL_ROW_12_88 VGND VPWR sky130_fd_sc_hd__tapvpwrvgnd_1
XTAP_TAPCELL_ROW_8_78 VGND VPWR sky130_fd_sc_hd__tapvpwrvgnd_1
X_276_ _096_ _098_ _101_ VGND VGND VPWR VPWR _102_ sky130_fd_sc_hd__nor3_1
X_345_ net22 _148_ _149_ _107_ VGND VGND VPWR VPWR _021_ sky130_fd_sc_hd__o211a_1
XPHY_EDGE_ROW_21_Right_21 VGND VGND VPWR VPWR sky130_fd_sc_hd__decap_3
XFILLER_0_4_83 VGND VGND VPWR VPWR sky130_fd_sc_hd__fill_1
XPHY_EDGE_ROW_12_Right_12 VGND VGND VPWR VPWR sky130_fd_sc_hd__decap_3
X_259_ _151_ net15 net16 net17 VGND VGND VPWR VPWR _085_ sky130_fd_sc_hd__nand4_1
XFILLER_0_0_19 VGND VGND VPWR VPWR sky130_fd_sc_hd__decap_8
X_328_ uart1.counter\[4\] uart1.counter\[5\] uart1.counter\[6\] uart1.counter\[7\]
+ VGND VGND VPWR VPWR _139_ sky130_fd_sc_hd__and4_1
XFILLER_0_21_85 VPWR VGND VPWR VGND sky130_ef_sc_hd__decap_12
XFILLER_0_1_51 VGND VGND VPWR VPWR sky130_fd_sc_hd__decap_4
XFILLER_0_16_85 VGND VGND VPWR VPWR sky130_fd_sc_hd__decap_4
XFILLER_0_16_41 VGND VGND VPWR VPWR sky130_fd_sc_hd__decap_3
XFILLER_0_6_29 VGND VGND VPWR VPWR sky130_fd_sc_hd__fill_2
XPHY_EDGE_ROW_6_Right_6 VGND VGND VPWR VPWR sky130_fd_sc_hd__decap_3
XFILLER_0_8_148 VGND VGND VPWR VPWR sky130_fd_sc_hd__decap_8
Xoutput21 net21 VGND VGND VPWR VPWR DATA_OUT_Rx[2] sky130_fd_sc_hd__buf_1
XFILLER_0_5_107 VGND VGND VPWR VPWR sky130_fd_sc_hd__decap_4
XFILLER_0_11_6 VGND VGND VPWR VPWR sky130_fd_sc_hd__decap_3
X_292_ net19 _032_ _111_ _112_ VGND VGND VPWR VPWR _005_ sky130_fd_sc_hd__a211o_1
XFILLER_0_7_72 VPWR VGND VPWR VGND sky130_ef_sc_hd__decap_12
X_361_ net31 _007_ net11 VGND VGND VPWR VPWR net27 sky130_fd_sc_hd__dfstp_1
X_275_ _087_ _099_ _100_ _061_ VGND VGND VPWR VPWR _101_ sky130_fd_sc_hd__nand4b_1
X_344_ uart3.state\[1\] net1 _036_ uart3.state\[0\] VGND VGND VPWR VPWR _149_ sky130_fd_sc_hd__or4b_1
XFILLER_0_24_85 VPWR VGND VPWR VGND sky130_ef_sc_hd__decap_12
XFILLER_0_24_74 VGND VGND VPWR VPWR sky130_fd_sc_hd__decap_8
X_258_ net15 net18 _041_ VGND VGND VPWR VPWR _084_ sky130_fd_sc_hd__nand3_1
XFILLER_0_19_85 VPWR VGND VPWR VGND sky130_ef_sc_hd__decap_12
X_189_ uart2.state\[3\] uart2.state\[2\] VGND VGND VPWR VPWR _168_ sky130_fd_sc_hd__and2b_1
X_327_ _094_ _138_ VGND VGND VPWR VPWR _014_ sky130_fd_sc_hd__and2_1
XTAP_TAPCELL_ROW_5_69 VGND VPWR sky130_fd_sc_hd__tapvpwrvgnd_1
XFILLER_0_24_141 VPWR VGND VPWR VGND sky130_ef_sc_hd__decap_12
XFILLER_0_21_97 VPWR VGND VPWR VGND sky130_ef_sc_hd__decap_12
XFILLER_0_16_75 VGND VGND VPWR VPWR sky130_fd_sc_hd__fill_2
Xoutput22 net22 VGND VGND VPWR VPWR DATA_OUT_Rx[3] sky130_fd_sc_hd__buf_1
XFILLER_0_9_3 VGND VGND VPWR VPWR sky130_fd_sc_hd__decap_3
X_360_ net31 uart2.next\[3\] net11 VGND VGND VPWR VPWR uart2.state\[3\] sky130_fd_sc_hd__dfrtp_1
XFILLER_0_7_84 VPWR VGND VPWR VGND sky130_ef_sc_hd__decap_12
X_291_ uart3.state\[0\] uart3.state\[1\] _023_ VGND VGND VPWR VPWR _112_ sky130_fd_sc_hd__and3_1
XFILLER_0_1_111 VGND VGND VPWR VPWR sky130_fd_sc_hd__fill_1
X_274_ _153_ _056_ _059_ _064_ uart1.counter\[6\] VGND VGND VPWR VPWR _100_ sky130_fd_sc_hd__a32oi_1
X_343_ uart3.state\[3\] uart3.state\[1\] uart3.state\[0\] uart3.state\[2\] VGND VGND
+ VPWR VPWR _148_ sky130_fd_sc_hd__and4bb_1
XFILLER_0_24_97 VPWR VGND VPWR VGND sky130_ef_sc_hd__decap_12
XFILLER_0_4_85 VPWR VGND VPWR VGND sky130_ef_sc_hd__decap_12
X_257_ _049_ _151_ VGND VGND VPWR VPWR _083_ sky130_fd_sc_hd__nand2_1
XFILLER_0_19_97 VGND VGND VPWR VPWR sky130_fd_sc_hd__fill_2
XFILLER_0_19_53 VGND VGND VPWR VPWR sky130_fd_sc_hd__decap_3
X_188_ _164_ _156_ _159_ _161_ _167_ VGND VGND VPWR VPWR uart2.next\[1\] sky130_fd_sc_hd__a32o_1
X_326_ uart1.counter\[2\] uart1.counter\[3\] _125_ _136_ _137_ VGND VGND VPWR VPWR
+ _138_ sky130_fd_sc_hd__a41oi_1
XFILLER_0_21_54 VGND VGND VPWR VPWR sky130_fd_sc_hd__fill_2
XFILLER_0_21_10 VGND VGND VPWR VPWR sky130_fd_sc_hd__decap_8
XFILLER_0_16_109 VPWR VGND VPWR VGND sky130_ef_sc_hd__decap_12
X_309_ uart1.counter\[0\] net10 uart1.counter\[1\] VGND VGND VPWR VPWR _126_ sky130_fd_sc_hd__a21oi_1
XPHY_EDGE_ROW_12_Left_39 VGND VGND VPWR VPWR sky130_fd_sc_hd__decap_3
XFILLER_0_24_153 VGND VGND VPWR VPWR sky130_fd_sc_hd__decap_3
XFILLER_0_21_65 VPWR VGND VPWR VGND sky130_ef_sc_hd__decap_12
XFILLER_0_12_145 VGND VGND VPWR VPWR sky130_fd_sc_hd__decap_8
Xoutput23 net23 VGND VGND VPWR VPWR DATA_OUT_Rx[4] sky130_fd_sc_hd__buf_1
XPHY_EDGE_ROW_15_Left_42 VGND VGND VPWR VPWR sky130_fd_sc_hd__decap_3
XFILLER_0_4_120 VGND VGND VPWR VPWR sky130_fd_sc_hd__decap_3
XFILLER_0_7_30 VGND VGND VPWR VPWR sky130_fd_sc_hd__decap_3
X_290_ uart3.state\[2\] uart3.state\[0\] uart3.state\[1\] net1 VGND VGND VPWR VPWR
+ _111_ sky130_fd_sc_hd__and4bb_1
XFILLER_0_13_55 VGND VGND VPWR VPWR sky130_fd_sc_hd__fill_1
XFILLER_0_1_156 VGND VGND VPWR VPWR sky130_fd_sc_hd__decap_3
X_273_ uart1.counter\[1\] _066_ _076_ VGND VGND VPWR VPWR _099_ sky130_fd_sc_hd__a21boi_1
XPHY_EDGE_ROW_0_Left_27 VGND VGND VPWR VPWR sky130_fd_sc_hd__decap_3
X_342_ net21 _146_ _147_ _107_ VGND VGND VPWR VPWR _020_ sky130_fd_sc_hd__o211a_1
XFILLER_0_4_97 VGND VGND VPWR VPWR sky130_fd_sc_hd__decap_4
XTAP_TAPCELL_ROW_13_90 VGND VPWR sky130_fd_sc_hd__tapvpwrvgnd_1
X_376__32 VGND VGND VPWR VPWR _376__32/HI net32 sky130_fd_sc_hd__conb_1
X_256_ net16 net15 _151_ _081_ VGND VGND VPWR VPWR _082_ sky130_fd_sc_hd__o211ai_1
XFILLER_0_19_76 VGND VGND VPWR VPWR sky130_fd_sc_hd__decap_4
X_187_ uart2.state\[1\] uart2.state\[0\] VGND VGND VPWR VPWR _167_ sky130_fd_sc_hd__nand2_1
X_325_ uart1.counter\[5\] _133_ uart1.counter\[6\] VGND VGND VPWR VPWR _137_ sky130_fd_sc_hd__a21oi_1
XFILLER_0_19_107 VGND VGND VPWR VPWR sky130_fd_sc_hd__decap_4
XTAP_TAPCELL_ROW_9_80 VGND VPWR sky130_fd_sc_hd__tapvpwrvgnd_1
XPHY_EDGE_ROW_3_Left_30 VGND VGND VPWR VPWR sky130_fd_sc_hd__decap_3
XFILLER_0_24_121 VPWR VGND VPWR VGND sky130_ef_sc_hd__decap_12
XFILLER_0_21_77 VGND VGND VPWR VPWR sky130_fd_sc_hd__fill_1
X_239_ uart1.counter\[0\] net10 VGND VGND VPWR VPWR _065_ sky130_fd_sc_hd__and2b_1
X_308_ uart1.counter\[1\] uart1.counter\[0\] net10 VGND VGND VPWR VPWR _125_ sky130_fd_sc_hd__and3_1
XFILLER_0_15_121 VGND VGND VPWR VPWR sky130_fd_sc_hd__decap_6
XFILLER_0_21_157 VGND VGND VPWR VPWR sky130_fd_sc_hd__fill_2
XFILLER_0_21_113 VPWR VGND VPWR VGND sky130_ef_sc_hd__decap_12
XFILLER_0_25_3 VGND VGND VPWR VPWR sky130_fd_sc_hd__decap_8
Xoutput24 net24 VGND VGND VPWR VPWR DATA_OUT_Rx[5] sky130_fd_sc_hd__buf_1
XPHY_EDGE_ROW_19_Right_19 VGND VGND VPWR VPWR sky130_fd_sc_hd__decap_3
XFILLER_0_13_23 VGND VGND VPWR VPWR sky130_fd_sc_hd__fill_1
XFILLER_0_13_45 VGND VGND VPWR VPWR sky130_fd_sc_hd__decap_6
X_272_ _097_ _073_ _048_ _047_ VGND VGND VPWR VPWR _098_ sky130_fd_sc_hd__nand4_1
X_341_ uart3.state\[0\] uart3.state\[1\] net1 _036_ VGND VGND VPWR VPWR _147_ sky130_fd_sc_hd__or4_1
XFILLER_0_24_33 VPWR VGND VPWR VGND sky130_ef_sc_hd__decap_12
X_255_ net17 net16 net15 VGND VGND VPWR VPWR _081_ sky130_fd_sc_hd__nand3_1
X_186_ _158_ _165_ _166_ _162_ net14 VGND VGND VPWR VPWR uart2.next\[0\] sky130_fd_sc_hd__o32a_1
X_324_ uart1.counter\[4\] uart1.counter\[5\] uart1.counter\[6\] VGND VGND VPWR VPWR
+ _136_ sky130_fd_sc_hd__and3_1
XFILLER_0_18_141 VPWR VGND VPWR VGND sky130_ef_sc_hd__decap_12
XFILLER_0_18_130 VGND VGND VPWR VPWR sky130_fd_sc_hd__fill_2
XFILLER_0_24_133 VGND VGND VPWR VPWR sky130_fd_sc_hd__decap_6
X_238_ _042_ _062_ _043_ _057_ VGND VGND VPWR VPWR _064_ sky130_fd_sc_hd__o22ai_2
X_307_ _065_ _124_ _094_ VGND VGND VPWR VPWR _008_ sky130_fd_sc_hd__o21a_1
XFILLER_0_1_55 VGND VGND VPWR VPWR sky130_fd_sc_hd__fill_1
X_169_ uart2.state\[1\] VGND VGND VPWR VPWR _150_ sky130_fd_sc_hd__inv_2
XTAP_TAPCELL_ROW_10_81 VGND VPWR sky130_fd_sc_hd__tapvpwrvgnd_1
XFILLER_0_21_125 VPWR VGND VPWR VGND sky130_ef_sc_hd__decap_12
XFILLER_0_16_67 VGND VGND VPWR VPWR sky130_fd_sc_hd__decap_8
XFILLER_0_16_12 VGND VGND VPWR VPWR sky130_fd_sc_hd__fill_1
XTAP_TAPCELL_ROW_6_71 VGND VPWR sky130_fd_sc_hd__tapvpwrvgnd_1
Xoutput25 net25 VGND VGND VPWR VPWR DATA_OUT_Rx[6] sky130_fd_sc_hd__buf_1
XFILLER_0_1_136 VPWR VGND VPWR VGND sky130_ef_sc_hd__decap_12
XFILLER_0_13_57 VGND VGND VPWR VPWR sky130_fd_sc_hd__decap_8
XFILLER_0_24_56 VGND VGND VPWR VPWR sky130_fd_sc_hd__fill_1
XFILLER_0_24_45 VGND VGND VPWR VPWR sky130_fd_sc_hd__decap_4
X_271_ _051_ uart1.counter\[8\] _075_ VGND VGND VPWR VPWR _097_ sky130_fd_sc_hd__a21boi_1
X_340_ uart3.state\[0\] uart3.state\[1\] _036_ VGND VGND VPWR VPWR _146_ sky130_fd_sc_hd__nor3_1
X_254_ _044_ _067_ _052_ _043_ VGND VGND VPWR VPWR _080_ sky130_fd_sc_hd__o2bb2ai_1
X_185_ _150_ uart2.state\[3\] uart2.state\[0\] VGND VGND VPWR VPWR _166_ sky130_fd_sc_hd__a21oi_1
X_323_ _094_ _135_ VGND VGND VPWR VPWR _013_ sky130_fd_sc_hd__and2_1
XFILLER_0_18_153 VGND VGND VPWR VPWR sky130_fd_sc_hd__decap_3
X_237_ _042_ _062_ _043_ _057_ VGND VGND VPWR VPWR _063_ sky130_fd_sc_hd__o22a_1
XFILLER_0_21_57 VGND VGND VPWR VPWR sky130_fd_sc_hd__fill_1
X_306_ net10 uart1.counter\[0\] VGND VGND VPWR VPWR _124_ sky130_fd_sc_hd__and2b_1
XFILLER_0_21_137 VPWR VGND VPWR VGND sky130_ef_sc_hd__decap_12
XTAP_TAPCELL_ROW_10_82 VGND VPWR sky130_fd_sc_hd__tapvpwrvgnd_1
XTAP_TAPCELL_ROW_6_72 VGND VPWR sky130_fd_sc_hd__tapvpwrvgnd_1
XFILLER_0_12_126 VPWR VGND VPWR VGND sky130_ef_sc_hd__decap_12
XTAP_TAPCELL_ROW_26_121 VGND VPWR sky130_fd_sc_hd__tapvpwrvgnd_1
Xoutput26 net26 VGND VGND VPWR VPWR DATA_OUT_Rx[7] sky130_fd_sc_hd__buf_1
XPHY_EDGE_ROW_1_Right_1 VGND VGND VPWR VPWR sky130_fd_sc_hd__decap_3
XFILLER_0_4_101 VGND VGND VPWR VPWR sky130_fd_sc_hd__fill_1
XFILLER_0_7_55 VGND VGND VPWR VPWR sky130_fd_sc_hd__fill_1
XFILLER_0_7_66 VGND VGND VPWR VPWR sky130_fd_sc_hd__fill_1
XFILLER_0_1_148 VGND VGND VPWR VPWR sky130_fd_sc_hd__decap_8
XPHY_EDGE_ROW_19_Left_46 VGND VGND VPWR VPWR sky130_fd_sc_hd__decap_3
X_270_ uart1.counter\[6\] _064_ _089_ _091_ _095_ VGND VGND VPWR VPWR _096_ sky130_fd_sc_hd__o2111ai_1
XFILLER_0_24_13 VPWR VGND VPWR VGND sky130_ef_sc_hd__decap_12
XFILLER_0_4_45 VGND VGND VPWR VPWR sky130_fd_sc_hd__decap_6
X_322_ uart1.counter\[5\] _133_ VGND VGND VPWR VPWR _135_ sky130_fd_sc_hd__xor2_1
XFILLER_0_19_57 VPWR VGND VPWR VGND sky130_ef_sc_hd__decap_12
X_253_ _055_ _070_ _078_ VGND VGND VPWR VPWR _079_ sky130_fd_sc_hd__nand3_1
X_184_ _150_ _163_ _164_ VGND VGND VPWR VPWR _165_ sky130_fd_sc_hd__and3_1
X_236_ net18 net15 VGND VGND VPWR VPWR _062_ sky130_fd_sc_hd__and2b_1
XFILLER_0_21_25 VPWR VGND VPWR VGND sky130_ef_sc_hd__decap_12
X_305_ _118_ _120_ _123_ _162_ net27 VGND VGND VPWR VPWR _007_ sky130_fd_sc_hd__o32a_1
XFILLER_0_1_57 VPWR VGND VPWR VGND sky130_ef_sc_hd__decap_12
XFILLER_0_21_149 VGND VGND VPWR VPWR sky130_fd_sc_hd__decap_8
XPHY_EDGE_ROW_7_Left_34 VGND VGND VPWR VPWR sky130_fd_sc_hd__decap_3
XTAP_TAPCELL_ROW_10_83 VGND VPWR sky130_fd_sc_hd__tapvpwrvgnd_1
X_219_ _043_ _044_ VGND VGND VPWR VPWR _045_ sky130_fd_sc_hd__nand2_1
XFILLER_0_16_25 VGND VGND VPWR VPWR sky130_fd_sc_hd__decap_3
XTAP_TAPCELL_ROW_6_73 VGND VPWR sky130_fd_sc_hd__tapvpwrvgnd_1
XFILLER_0_12_138 VGND VGND VPWR VPWR sky130_fd_sc_hd__fill_2
XTAP_TAPCELL_ROW_26_122 VGND VPWR sky130_fd_sc_hd__tapvpwrvgnd_1
Xoutput27 net27 VGND VGND VPWR VPWR DATA_OUT_Tx sky130_fd_sc_hd__buf_1
XTAP_TAPCELL_ROW_17_100 VGND VPWR sky130_fd_sc_hd__tapvpwrvgnd_1
XPHY_EDGE_ROW_24_Right_24 VGND VGND VPWR VPWR sky130_fd_sc_hd__decap_3
XTAP_TAPCELL_ROW_23_114 VGND VPWR sky130_fd_sc_hd__tapvpwrvgnd_1
XPHY_EDGE_ROW_15_Right_15 VGND VGND VPWR VPWR sky130_fd_sc_hd__decap_3
XFILLER_0_1_105 VGND VGND VPWR VPWR sky130_fd_sc_hd__decap_6
XTAP_TAPCELL_ROW_20_106 VGND VPWR sky130_fd_sc_hd__tapvpwrvgnd_1
XFILLER_0_24_25 VGND VGND VPWR VPWR sky130_fd_sc_hd__decap_3
XPHY_EDGE_ROW_20_Left_47 VGND VGND VPWR VPWR sky130_fd_sc_hd__decap_3
XFILLER_0_19_69 VGND VGND VPWR VPWR sky130_fd_sc_hd__fill_1
X_252_ _077_ _072_ VGND VGND VPWR VPWR _078_ sky130_fd_sc_hd__nor2_1
X_183_ uart2.state\[2\] uart2.state\[3\] VGND VGND VPWR VPWR _164_ sky130_fd_sc_hd__and2b_1
X_321_ _094_ _134_ VGND VGND VPWR VPWR _012_ sky130_fd_sc_hd__and2_1
XFILLER_0_10_27 VGND VGND VPWR VPWR sky130_fd_sc_hd__fill_1
XFILLER_0_10_49 VGND VGND VPWR VPWR sky130_fd_sc_hd__decap_8
X_235_ _056_ _059_ _153_ VGND VGND VPWR VPWR _061_ sky130_fd_sc_hd__a21o_1
XFILLER_0_21_37 VGND VGND VPWR VPWR sky130_fd_sc_hd__decap_4
X_304_ _150_ uart2.state\[0\] _121_ _162_ _122_ VGND VGND VPWR VPWR _123_ sky130_fd_sc_hd__o311ai_1
XPHY_EDGE_ROW_23_Left_50 VGND VGND VPWR VPWR sky130_fd_sc_hd__decap_3
XFILLER_0_1_69 VPWR VGND VPWR VGND sky130_ef_sc_hd__decap_12
XFILLER_0_11_70 VGND VGND VPWR VPWR sky130_fd_sc_hd__decap_8
X_218_ net17 net16 net18 VGND VGND VPWR VPWR _044_ sky130_fd_sc_hd__a21oi_1
XFILLER_0_16_48 VPWR VGND VPWR VGND sky130_ef_sc_hd__decap_12
XFILLER_0_12_117 VGND VGND VPWR VPWR sky130_fd_sc_hd__fill_1
XFILLER_0_18_6 VPWR VGND VPWR VGND sky130_ef_sc_hd__decap_12
Xoutput28 net28 VGND VGND VPWR VPWR IRQ_Rx sky130_fd_sc_hd__buf_1
XFILLER_0_7_111 VGND VGND VPWR VPWR sky130_fd_sc_hd__fill_1
XTAP_TAPCELL_ROW_26_123 VGND VPWR sky130_fd_sc_hd__tapvpwrvgnd_1
XFILLER_0_17_91 VPWR VGND VPWR VGND sky130_ef_sc_hd__decap_12
XFILLER_0_7_57 VGND VGND VPWR VPWR sky130_fd_sc_hd__fill_2
XTAP_TAPCELL_ROW_23_115 VGND VPWR sky130_fd_sc_hd__tapvpwrvgnd_1
XFILLER_0_7_6 VPWR VGND VPWR VGND sky130_ef_sc_hd__decap_12
XTAP_TAPCELL_ROW_20_107 VGND VPWR sky130_fd_sc_hd__tapvpwrvgnd_1
XTAP_TAPCELL_ROW_3_64 VGND VPWR sky130_fd_sc_hd__tapvpwrvgnd_1
XFILLER_0_5_3 VGND VGND VPWR VPWR sky130_fd_sc_hd__fill_1
X_251_ uart1.counter\[1\] _066_ _075_ _076_ VGND VGND VPWR VPWR _077_ sky130_fd_sc_hd__o211ai_1
XTAP_TAPCELL_ROW_0_54 VGND VPWR sky130_fd_sc_hd__tapvpwrvgnd_1
X_182_ uart2.state\[1\] uart2.state\[0\] _156_ net13 VGND VGND VPWR VPWR _163_ sky130_fd_sc_hd__o31ai_1
X_320_ _132_ _133_ VGND VGND VPWR VPWR _134_ sky130_fd_sc_hd__nor2_1
X_234_ _041_ _151_ _153_ _059_ VGND VGND VPWR VPWR _060_ sky130_fd_sc_hd__o211ai_1
X_303_ uart2.state\[3\] _167_ uart2.state\[2\] net3 VGND VGND VPWR VPWR _122_ sky130_fd_sc_hd__or4b_1
XFILLER_0_15_137 VGND VGND VPWR VPWR sky130_fd_sc_hd__fill_2
XFILLER_0_15_104 VGND VGND VPWR VPWR sky130_fd_sc_hd__decap_8
X_217_ net16 net15 net17 VGND VGND VPWR VPWR _043_ sky130_fd_sc_hd__a21o_2
Xoutput29 net29 VGND VGND VPWR VPWR IRQ_Tx sky130_fd_sc_hd__buf_1
XTAP_TAPCELL_ROW_26_124 VGND VPWR sky130_fd_sc_hd__tapvpwrvgnd_1
XFILLER_0_4_137 VGND VGND VPWR VPWR sky130_fd_sc_hd__decap_3
XFILLER_0_4_148 VGND VGND VPWR VPWR sky130_fd_sc_hd__decap_8
XFILLER_0_7_47 VGND VGND VPWR VPWR sky130_fd_sc_hd__decap_8
XFILLER_0_7_36 VGND VGND VPWR VPWR sky130_fd_sc_hd__decap_6
XFILLER_0_17_81 VGND VGND VPWR VPWR sky130_fd_sc_hd__decap_6
XPHY_EDGE_ROW_5_Right_5 VGND VGND VPWR VPWR sky130_fd_sc_hd__decap_3
XTAP_TAPCELL_ROW_3_65 VGND VPWR sky130_fd_sc_hd__tapvpwrvgnd_1
XTAP_TAPCELL_ROW_20_108 VGND VPWR sky130_fd_sc_hd__tapvpwrvgnd_1
XFILLER_0_4_26 VGND VGND VPWR VPWR sky130_fd_sc_hd__fill_2
XFILLER_0_19_27 VGND VGND VPWR VPWR sky130_fd_sc_hd__decap_3
X_250_ _056_ _074_ uart1.counter\[2\] VGND VGND VPWR VPWR _076_ sky130_fd_sc_hd__a21bo_1
XTAP_TAPCELL_ROW_0_55 VGND VPWR sky130_fd_sc_hd__tapvpwrvgnd_1
X_181_ _159_ _160_ _158_ VGND VGND VPWR VPWR _162_ sky130_fd_sc_hd__a21oi_1
XFILLER_0_25_81 VGND VGND VPWR VPWR sky130_fd_sc_hd__fill_1
X_233_ net16 net15 _151_ _058_ VGND VGND VPWR VPWR _059_ sky130_fd_sc_hd__o211ai_2
X_302_ net2 _160_ _168_ net6 VGND VGND VPWR VPWR _121_ sky130_fd_sc_hd__a22oi_1
X_216_ net17 net15 VGND VGND VPWR VPWR _042_ sky130_fd_sc_hd__nor2_1
XFILLER_0_20_141 VPWR VGND VPWR VGND sky130_ef_sc_hd__decap_12
XFILLER_0_7_113 VGND VGND VPWR VPWR sky130_fd_sc_hd__decap_4
XTAP_TAPCELL_ROW_26_125 VGND VPWR sky130_fd_sc_hd__tapvpwrvgnd_1
Xoutput19 net19 VGND VGND VPWR VPWR DATA_OUT_Rx[0] sky130_fd_sc_hd__buf_1
XTAP_TAPCELL_ROW_16_96 VGND VPWR sky130_fd_sc_hd__tapvpwrvgnd_1
XPHY_EDGE_ROW_20_Right_20 VGND VGND VPWR VPWR sky130_fd_sc_hd__decap_3
XPHY_EDGE_ROW_11_Right_11 VGND VGND VPWR VPWR sky130_fd_sc_hd__decap_3
XFILLER_0_21_3 VGND VGND VPWR VPWR sky130_fd_sc_hd__fill_1