*SPEF "ieee 1481-1999"
*DESIGN "uart"
*DATE "04:49:32 Friday November 22, 2024"
*VENDOR "The OpenROAD Project"
*PROGRAM "OpenROAD"
*VERSION "v2.0-13348-gd423155d6"
*DESIGN_FLOW "NAME_SCOPE LOCAL" "PIN_CAP NONE"
*DIVIDER /
*DELIMITER :
*BUS_DELIMITER []
*T_UNIT 1 NS
*C_UNIT 1 PF
*R_UNIT 1 OHM
*L_UNIT 1 HENRY

*NAME_MAP
*1 DATA_IN_Rx
*2 DATA_IN_Tx[0]
*3 DATA_IN_Tx[1]
*4 DATA_IN_Tx[2]
*5 DATA_IN_Tx[3]
*6 DATA_IN_Tx[4]
*7 DATA_IN_Tx[5]
*8 DATA_IN_Tx[6]
*9 DATA_IN_Tx[7]
*10 DATA_OUT_Rx[0]
*11 DATA_OUT_Rx[1]
*12 DATA_OUT_Rx[2]
*13 DATA_OUT_Rx[3]
*14 DATA_OUT_Rx[4]
*15 DATA_OUT_Rx[5]
*16 DATA_OUT_Rx[6]
*17 DATA_OUT_Rx[7]
*18 DATA_OUT_Rx[8]
*19 DATA_OUT_Rx[9]
*20 DATA_OUT_Tx
*21 EN
*22 IRQ_Rx
*23 IRQ_Tx
*24 RST
*25 UART_AVAIL
*26 UART_BITS
*27 UART_PARITY
*28 UART_WRITE
*31 bitrate[0]
*32 bitrate[1]
*33 bitrate[2]
*34 bitrate[3]
*35 clk_CPU
*36 uart_clock
*37 _000_
*38 _001_
*39 _002_
*40 _003_
*41 _004_
*42 _005_
*43 _006_
*44 _007_
*45 _008_
*46 _009_
*47 _010_
*48 _011_
*49 _012_
*50 _013_
*51 _014_
*52 _015_
*53 _016_
*54 _017_
*55 _018_
*56 _019_
*57 _020_
*58 _021_
*59 _022_
*60 _023_
*61 _024_
*62 _025_
*63 _026_
*64 _027_
*65 _028_
*66 _029_
*67 _030_
*68 _031_
*69 _032_
*70 _033_
*71 _034_
*72 _035_
*73 _036_
*74 _037_
*75 _038_
*76 _039_
*77 _040_
*78 _041_
*79 _042_
*80 _043_
*81 _044_
*82 _045_
*83 _046_
*84 _047_
*85 _048_
*86 _049_
*87 _050_
*88 _051_
*89 _052_
*90 _053_
*91 _054_
*92 _055_
*93 _056_
*94 _057_
*95 _058_
*96 _059_
*97 _060_
*98 _061_
*99 _062_
*100 _063_
*101 _064_
*102 _065_
*103 _066_
*104 _067_
*105 _068_
*106 _069_
*107 _070_
*108 _071_
*109 _072_
*110 _073_
*111 _074_
*112 _075_
*113 _076_
*114 _077_
*115 _078_
*116 _079_
*117 _080_
*118 _081_
*119 _082_
*120 _083_
*121 _084_
*122 _085_
*123 _086_
*124 _087_
*125 _088_
*126 _089_
*127 _090_
*128 _091_
*129 _092_
*130 _093_
*131 _094_
*132 _095_
*133 _096_
*134 _097_
*135 _098_
*136 _099_
*137 _100_
*138 _101_
*139 _102_
*140 _103_
*141 _104_
*142 _105_
*143 _106_
*144 _107_
*145 _108_
*146 _109_
*147 _110_
*148 _111_
*149 _112_
*150 _113_
*151 _114_
*152 _115_
*153 _116_
*154 _117_
*155 _118_
*156 _119_
*157 _120_
*158 _121_
*159 _122_
*160 _123_
*161 _124_
*162 _125_
*163 _126_
*164 _127_
*165 _128_
*166 _129_
*167 _130_
*168 _131_
*169 _132_
*170 _133_
*171 _134_
*172 _135_
*173 _136_
*174 _137_
*175 _138_
*176 _139_
*177 _140_
*178 _141_
*179 _142_
*180 _143_
*181 _144_
*182 _145_
*183 _146_
*184 _147_
*185 _148_
*186 _149_
*187 _150_
*188 _151_
*189 _152_
*190 _153_
*191 _154_
*192 _155_
*193 _156_
*194 _157_
*195 _158_
*196 _159_
*197 _160_
*198 _161_
*199 _162_
*200 _163_
*201 _164_
*202 _165_
*203 _166_
*204 _167_
*205 _168_
*206 clknet_0_clk_CPU
*207 clknet_1_0__leaf_clk_CPU
*208 clknet_1_1__leaf_clk_CPU
*209 net1
*210 net10
*211 net11
*212 net12
*213 net13
*214 net14
*215 net15
*216 net16
*217 net17
*218 net18
*219 net19
*220 net2
*221 net20
*222 net21
*223 net22
*224 net23
*225 net24
*226 net25
*227 net26
*228 net27
*229 net28
*230 net29
*231 net3
*232 net30
*233 net31
*234 net32
*235 net33
*236 net4
*237 net5
*238 net6
*239 net7
*240 net8
*241 net9
*242 uart1\.counter\[0\]
*243 uart1\.counter\[1\]
*244 uart1\.counter\[2\]
*245 uart1\.counter\[3\]
*246 uart1\.counter\[4\]
*247 uart1\.counter\[5\]
*248 uart1\.counter\[6\]
*249 uart1\.counter\[7\]
*250 uart1\.counter\[8\]
*251 uart1\.counter\[9\]
*252 uart2\.next\[0\]
*253 uart2\.next\[1\]
*254 uart2\.next\[2\]
*255 uart2\.next\[3\]
*256 uart2\.state\[0\]
*257 uart2\.state\[1\]
*258 uart2\.state\[2\]
*259 uart2\.state\[3\]
*260 uart3\.next\[0\]
*261 uart3\.next\[1\]
*262 uart3\.next\[2\]
*263 uart3\.next\[3\]
*264 uart3\.state\[0\]
*265 uart3\.state\[1\]
*266 uart3\.state\[2\]
*267 uart3\.state\[3\]
*268 FILLER_0_0_109
*269 FILLER_0_0_113
*270 FILLER_0_0_139
*271 FILLER_0_0_141
*272 FILLER_0_0_153
*273 FILLER_0_0_19
*274 FILLER_0_0_27
*275 FILLER_0_0_29
*276 FILLER_0_0_41
*277 FILLER_0_0_53
*278 FILLER_0_0_57
*279 FILLER_0_0_69
*280 FILLER_0_0_81
*281 FILLER_0_0_85
*282 FILLER_0_0_97
*283 FILLER_0_10_120
*284 FILLER_0_10_125
*285 FILLER_0_10_133
*286 FILLER_0_10_139
*287 FILLER_0_10_149
*288 FILLER_0_10_155
*289 FILLER_0_10_19
*290 FILLER_0_10_27
*291 FILLER_0_10_49
*292 FILLER_0_10_61
*293 FILLER_0_10_7
*294 FILLER_0_10_73
*295 FILLER_0_10_81
*296 FILLER_0_10_85
*297 FILLER_0_11_104
*298 FILLER_0_11_113
*299 FILLER_0_11_12
*300 FILLER_0_11_126
*301 FILLER_0_11_132
*302 FILLER_0_11_20
*303 FILLER_0_11_33
*304 FILLER_0_11_6
*305 FILLER_0_11_64
*306 FILLER_0_11_70
*307 FILLER_0_12_117
*308 FILLER_0_12_126
*309 FILLER_0_12_138
*310 FILLER_0_12_14
*311 FILLER_0_12_145
*312 FILLER_0_12_153
*313 FILLER_0_12_26
*314 FILLER_0_12_29
*315 FILLER_0_12_37
*316 FILLER_0_12_6
*317 FILLER_0_12_72
*318 FILLER_0_12_79
*319 FILLER_0_12_83
*320 FILLER_0_12_85
*321 FILLER_0_13_104
*322 FILLER_0_13_113
*323 FILLER_0_13_125
*324 FILLER_0_13_137
*325 FILLER_0_13_146
*326 FILLER_0_13_154
*327 FILLER_0_13_19
*328 FILLER_0_13_23
*329 FILLER_0_13_3
*330 FILLER_0_13_45
*331 FILLER_0_13_51
*332 FILLER_0_13_55
*333 FILLER_0_13_57
*334 FILLER_0_13_92
*335 FILLER_0_14_125
*336 FILLER_0_14_13
*337 FILLER_0_14_136
*338 FILLER_0_14_157
*339 FILLER_0_14_21
*340 FILLER_0_14_27
*341 FILLER_0_14_3
*342 FILLER_0_14_34
*343 FILLER_0_14_68
*344 FILLER_0_15_104
*345 FILLER_0_15_121
*346 FILLER_0_15_137
*347 FILLER_0_15_35
*348 FILLER_0_15_46
*349 FILLER_0_15_54
*350 FILLER_0_15_57
*351 FILLER_0_15_6
*352 FILLER_0_15_63
*353 FILLER_0_15_67
*354 FILLER_0_15_80
*355 FILLER_0_15_92
*356 FILLER_0_16_109
*357 FILLER_0_16_12
*358 FILLER_0_16_121
*359 FILLER_0_16_133
*360 FILLER_0_16_139
*361 FILLER_0_16_149
*362 FILLER_0_16_155
*363 FILLER_0_16_25
*364 FILLER_0_16_29
*365 FILLER_0_16_41
*366 FILLER_0_16_48
*367 FILLER_0_16_6
*368 FILLER_0_16_67
*369 FILLER_0_16_75
*370 FILLER_0_16_85
*371 FILLER_0_17_103
*372 FILLER_0_17_111
*373 FILLER_0_17_133
*374 FILLER_0_17_29
*375 FILLER_0_17_37
*376 FILLER_0_17_57
*377 FILLER_0_17_69
*378 FILLER_0_17_81
*379 FILLER_0_17_87
*380 FILLER_0_17_91
*381 FILLER_0_18_106
*382 FILLER_0_18_118
*383 FILLER_0_18_130
*384 FILLER_0_18_141
*385 FILLER_0_18_153
*386 FILLER_0_18_18
*387 FILLER_0_18_26
*388 FILLER_0_18_29
*389 FILLER_0_18_41
*390 FILLER_0_18_48
*391 FILLER_0_18_54
*392 FILLER_0_18_58
*393 FILLER_0_18_6
*394 FILLER_0_18_67
*395 FILLER_0_18_79
*396 FILLER_0_18_83
*397 FILLER_0_18_85
*398 FILLER_0_18_97
*399 FILLER_0_19_107
*400 FILLER_0_19_111
*401 FILLER_0_19_113
*402 FILLER_0_19_134
*403 FILLER_0_19_156
*404 FILLER_0_19_27
*405 FILLER_0_19_3
*406 FILLER_0_19_53
*407 FILLER_0_19_57
*408 FILLER_0_19_69
*409 FILLER_0_19_76
*410 FILLER_0_19_85
*411 FILLER_0_19_97
*412 FILLER_0_1_105
*413 FILLER_0_1_111
*414 FILLER_0_1_136
*415 FILLER_0_1_148
*416 FILLER_0_1_156
*417 FILLER_0_1_3
*418 FILLER_0_1_51
*419 FILLER_0_1_55
*420 FILLER_0_1_57
*421 FILLER_0_1_69
*422 FILLER_0_1_81
*423 FILLER_0_1_93
*424 FILLER_0_20_113
*425 FILLER_0_20_125
*426 FILLER_0_20_137
*427 FILLER_0_20_14
*428 FILLER_0_20_141
*429 FILLER_0_20_153
*430 FILLER_0_20_25
*431 FILLER_0_20_29
*432 FILLER_0_20_35
*433 FILLER_0_20_43
*434 FILLER_0_20_58
*435 FILLER_0_20_6
*436 FILLER_0_20_64
*437 FILLER_0_20_72
*438 FILLER_0_20_85
*439 FILLER_0_20_97
*440 FILLER_0_21_10
*441 FILLER_0_21_109
*442 FILLER_0_21_113
*443 FILLER_0_21_125
*444 FILLER_0_21_137
*445 FILLER_0_21_149
*446 FILLER_0_21_157
*447 FILLER_0_21_18
*448 FILLER_0_21_25
*449 FILLER_0_21_3
*450 FILLER_0_21_37
*451 FILLER_0_21_54
*452 FILLER_0_21_57
*453 FILLER_0_21_65
*454 FILLER_0_21_77
*455 FILLER_0_21_85
*456 FILLER_0_21_97
*457 FILLER_0_22_104
*458 FILLER_0_22_116
*459 FILLER_0_22_128
*460 FILLER_0_22_141
*461 FILLER_0_22_15
*462 FILLER_0_22_153
*463 FILLER_0_22_19
*464 FILLER_0_22_24
*465 FILLER_0_22_36
*466 FILLER_0_22_40
*467 FILLER_0_22_47
*468 FILLER_0_22_6
*469 FILLER_0_22_63
*470 FILLER_0_22_75
*471 FILLER_0_22_83
*472 FILLER_0_22_85
*473 FILLER_0_23_109
*474 FILLER_0_23_113
*475 FILLER_0_23_125
*476 FILLER_0_23_137
*477 FILLER_0_23_149
*478 FILLER_0_23_15
*479 FILLER_0_23_157
*480 FILLER_0_23_23
*481 FILLER_0_23_32
*482 FILLER_0_23_44
*483 FILLER_0_23_57
*484 FILLER_0_23_66
*485 FILLER_0_23_74
*486 FILLER_0_24_109
*487 FILLER_0_24_121
*488 FILLER_0_24_13
*489 FILLER_0_24_133
*490 FILLER_0_24_139
*491 FILLER_0_24_141
*492 FILLER_0_24_153
*493 FILLER_0_24_25
*494 FILLER_0_24_29
*495 FILLER_0_24_33
*496 FILLER_0_24_45
*497 FILLER_0_24_56
*498 FILLER_0_24_74
*499 FILLER_0_24_82
*500 FILLER_0_24_85
*501 FILLER_0_24_97
*502 FILLER_0_25_104
*503 FILLER_0_25_11
*504 FILLER_0_25_113
*505 FILLER_0_25_125
*506 FILLER_0_25_137
*507 FILLER_0_25_157
*508 FILLER_0_25_17
*509 FILLER_0_25_23
*510 FILLER_0_25_3
*511 FILLER_0_25_30
*512 FILLER_0_25_41
*513 FILLER_0_25_60
*514 FILLER_0_25_66
*515 FILLER_0_25_81
*516 FILLER_0_25_85
*517 FILLER_0_26_109
*518 FILLER_0_26_113
*519 FILLER_0_26_125
*520 FILLER_0_26_13
*521 FILLER_0_26_137
*522 FILLER_0_26_141
*523 FILLER_0_26_25
*524 FILLER_0_26_29
*525 FILLER_0_26_41
*526 FILLER_0_26_53
*527 FILLER_0_26_57
*528 FILLER_0_26_69
*529 FILLER_0_26_81
*530 FILLER_0_26_85
*531 FILLER_0_26_97
*532 FILLER_0_2_109
*533 FILLER_0_2_121
*534 FILLER_0_2_133
*535 FILLER_0_2_139
*536 FILLER_0_2_148
*537 FILLER_0_2_152
*538 FILLER_0_2_24
*539 FILLER_0_2_29
*540 FILLER_0_2_47
*541 FILLER_0_2_59
*542 FILLER_0_2_6
*543 FILLER_0_2_71
*544 FILLER_0_2_83
*545 FILLER_0_2_85
*546 FILLER_0_2_97
*547 FILLER_0_3_109
*548 FILLER_0_3_120
*549 FILLER_0_3_132
*550 FILLER_0_3_138
*551 FILLER_0_3_27
*552 FILLER_0_3_3
*553 FILLER_0_3_39
*554 FILLER_0_3_47
*555 FILLER_0_3_55
*556 FILLER_0_3_57
*557 FILLER_0_3_69
*558 FILLER_0_3_81
*559 FILLER_0_3_93
*560 FILLER_0_4_101
*561 FILLER_0_4_120
*562 FILLER_0_4_137
*563 FILLER_0_4_148
*564 FILLER_0_4_16
*565 FILLER_0_4_26
*566 FILLER_0_4_29
*567 FILLER_0_4_45
*568 FILLER_0_4_6
*569 FILLER_0_4_71
*570 FILLER_0_4_83
*571 FILLER_0_4_85
*572 FILLER_0_4_97
*573 FILLER_0_5_107
*574 FILLER_0_5_111
*575 FILLER_0_5_113
*576 FILLER_0_5_124
*577 FILLER_0_5_17
*578 FILLER_0_5_27
*579 FILLER_0_5_3
*580 FILLER_0_5_57
*581 FILLER_0_5_69
*582 FILLER_0_5_81
*583 FILLER_0_5_93
*584 FILLER_0_6_108
*585 FILLER_0_6_12
*586 FILLER_0_6_126
*587 FILLER_0_6_138
*588 FILLER_0_6_146
*589 FILLER_0_6_154
*590 FILLER_0_6_24
*591 FILLER_0_6_29
*592 FILLER_0_6_39
*593 FILLER_0_6_51
*594 FILLER_0_7_107
*595 FILLER_0_7_111
*596 FILLER_0_7_113
*597 FILLER_0_7_125
*598 FILLER_0_7_137
*599 FILLER_0_7_18
*600 FILLER_0_7_30
*601 FILLER_0_7_36
*602 FILLER_0_7_47
*603 FILLER_0_7_55
*604 FILLER_0_7_57
*605 FILLER_0_7_6
*606 FILLER_0_7_66
*607 FILLER_0_7_72
*608 FILLER_0_7_84
*609 FILLER_0_8_113
*610 FILLER_0_8_134
*611 FILLER_0_8_148
*612 FILLER_0_8_21
*613 FILLER_0_8_27
*614 FILLER_0_8_74
*615 FILLER_0_8_83
*616 FILLER_0_8_85
*617 FILLER_0_9_101
*618 FILLER_0_9_110
*619 FILLER_0_9_113
*620 FILLER_0_9_12
*621 FILLER_0_9_125
*622 FILLER_0_9_145
*623 FILLER_0_9_157
*624 FILLER_0_9_24
*625 FILLER_0_9_3
*626 FILLER_0_9_36
*627 FILLER_0_9_48
*628 FILLER_0_9_65
*629 PHY_EDGE_ROW_0_Left_27
*630 PHY_EDGE_ROW_0_Right_0
*631 PHY_EDGE_ROW_10_Left_37
*632 PHY_EDGE_ROW_10_Right_10
*633 PHY_EDGE_ROW_11_Left_38
*634 PHY_EDGE_ROW_11_Right_11
*635 PHY_EDGE_ROW_12_Left_39
*636 PHY_EDGE_ROW_12_Right_12
*637 PHY_EDGE_ROW_13_Left_40
*638 PHY_EDGE_ROW_13_Right_13
*639 PHY_EDGE_ROW_14_Left_41
*640 PHY_EDGE_ROW_14_Right_14
*641 PHY_EDGE_ROW_15_Left_42
*642 PHY_EDGE_ROW_15_Right_15
*643 PHY_EDGE_ROW_16_Left_43
*644 PHY_EDGE_ROW_16_Right_16
*645 PHY_EDGE_ROW_17_Left_44
*646 PHY_EDGE_ROW_17_Right_17
*647 PHY_EDGE_ROW_18_Left_45
*648 PHY_EDGE_ROW_18_Right_18
*649 PHY_EDGE_ROW_19_Left_46
*650 PHY_EDGE_ROW_19_Right_19
*651 PHY_EDGE_ROW_1_Left_28
*652 PHY_EDGE_ROW_1_Right_1
*653 PHY_EDGE_ROW_20_Left_47
*654 PHY_EDGE_ROW_20_Right_20
*655 PHY_EDGE_ROW_21_Left_48
*656 PHY_EDGE_ROW_21_Right_21
*657 PHY_EDGE_ROW_22_Left_49
*658 PHY_EDGE_ROW_22_Right_22
*659 PHY_EDGE_ROW_23_Left_50
*660 PHY_EDGE_ROW_23_Right_23
*661 PHY_EDGE_ROW_24_Left_51
*662 PHY_EDGE_ROW_24_Right_24
*663 PHY_EDGE_ROW_25_Left_52
*664 PHY_EDGE_ROW_25_Right_25
*665 PHY_EDGE_ROW_26_Left_53
*666 PHY_EDGE_ROW_26_Right_26
*667 PHY_EDGE_ROW_2_Left_29
*668 PHY_EDGE_ROW_2_Right_2
*669 PHY_EDGE_ROW_3_Left_30
*670 PHY_EDGE_ROW_3_Right_3
*671 PHY_EDGE_ROW_4_Left_31
*672 PHY_EDGE_ROW_4_Right_4
*673 PHY_EDGE_ROW_5_Left_32
*674 PHY_EDGE_ROW_5_Right_5
*675 PHY_EDGE_ROW_6_Left_33
*676 PHY_EDGE_ROW_6_Right_6
*677 PHY_EDGE_ROW_7_Left_34
*678 PHY_EDGE_ROW_7_Right_7
*679 PHY_EDGE_ROW_8_Left_35
*680 PHY_EDGE_ROW_8_Right_8
*681 PHY_EDGE_ROW_9_Left_36
*682 PHY_EDGE_ROW_9_Right_9
*683 TAP_TAPCELL_ROW_0_54
*684 TAP_TAPCELL_ROW_0_55
*685 TAP_TAPCELL_ROW_0_56
*686 TAP_TAPCELL_ROW_0_57
*687 TAP_TAPCELL_ROW_0_58
*688 TAP_TAPCELL_ROW_10_81
*689 TAP_TAPCELL_ROW_10_82
*690 TAP_TAPCELL_ROW_10_83
*691 TAP_TAPCELL_ROW_11_84
*692 TAP_TAPCELL_ROW_11_85
*693 TAP_TAPCELL_ROW_12_86
*694 TAP_TAPCELL_ROW_12_87
*695 TAP_TAPCELL_ROW_12_88
*696 TAP_TAPCELL_ROW_13_89
*697 TAP_TAPCELL_ROW_13_90
*698 TAP_TAPCELL_ROW_14_91
*699 TAP_TAPCELL_ROW_14_92
*700 TAP_TAPCELL_ROW_14_93
*701 TAP_TAPCELL_ROW_15_94
*702 TAP_TAPCELL_ROW_15_95
*703 TAP_TAPCELL_ROW_16_96
*704 TAP_TAPCELL_ROW_16_97
*705 TAP_TAPCELL_ROW_16_98
*706 TAP_TAPCELL_ROW_17_100
*707 TAP_TAPCELL_ROW_17_99
*708 TAP_TAPCELL_ROW_18_101
*709 TAP_TAPCELL_ROW_18_102
*710 TAP_TAPCELL_ROW_18_103
*711 TAP_TAPCELL_ROW_19_104
*712 TAP_TAPCELL_ROW_19_105
*713 TAP_TAPCELL_ROW_1_59
*714 TAP_TAPCELL_ROW_1_60
*715 TAP_TAPCELL_ROW_20_106
*716 TAP_TAPCELL_ROW_20_107
*717 TAP_TAPCELL_ROW_20_108
*718 TAP_TAPCELL_ROW_21_109
*719 TAP_TAPCELL_ROW_21_110
*720 TAP_TAPCELL_ROW_22_111
*721 TAP_TAPCELL_ROW_22_112
*722 TAP_TAPCELL_ROW_22_113
*723 TAP_TAPCELL_ROW_23_114
*724 TAP_TAPCELL_ROW_23_115
*725 TAP_TAPCELL_ROW_24_116
*726 TAP_TAPCELL_ROW_24_117
*727 TAP_TAPCELL_ROW_24_118
*728 TAP_TAPCELL_ROW_25_119
*729 TAP_TAPCELL_ROW_25_120
*730 TAP_TAPCELL_ROW_26_121
*731 TAP_TAPCELL_ROW_26_122
*732 TAP_TAPCELL_ROW_26_123
*733 TAP_TAPCELL_ROW_26_124
*734 TAP_TAPCELL_ROW_26_125
*735 TAP_TAPCELL_ROW_2_61
*736 TAP_TAPCELL_ROW_2_62
*737 TAP_TAPCELL_ROW_2_63
*738 TAP_TAPCELL_ROW_3_64
*739 TAP_TAPCELL_ROW_3_65
*740 TAP_TAPCELL_ROW_4_66
*741 TAP_TAPCELL_ROW_4_67
*742 TAP_TAPCELL_ROW_4_68
*743 TAP_TAPCELL_ROW_5_69
*744 TAP_TAPCELL_ROW_5_70
*745 TAP_TAPCELL_ROW_6_71
*746 TAP_TAPCELL_ROW_6_72
*747 TAP_TAPCELL_ROW_6_73
*748 TAP_TAPCELL_ROW_7_74
*749 TAP_TAPCELL_ROW_7_75
*750 TAP_TAPCELL_ROW_8_76
*751 TAP_TAPCELL_ROW_8_77
*752 TAP_TAPCELL_ROW_8_78
*753 TAP_TAPCELL_ROW_9_79
*754 TAP_TAPCELL_ROW_9_80
*755 _169_
*756 _170_
*757 _171_
*758 _172_
*759 _173_
*760 _174_
*761 _175_
*762 _176_
*763 _177_
*764 _178_
*765 _179_
*766 _180_
*767 _181_
*768 _182_
*769 _183_
*770 _184_
*771 _185_
*772 _186_
*773 _187_
*774 _188_
*775 _189_
*776 _190_
*777 _191_
*778 _192_
*779 _193_
*780 _194_
*781 _195_
*782 _196_
*783 _197_
*784 _198_
*785 _199_
*786 _200_
*787 _201_
*788 _202_
*789 _203_
*790 _204_
*791 _205_
*792 _206_
*793 _207_
*794 _208_
*795 _209_
*796 _210_
*797 _211_
*798 _212_
*799 _213_
*800 _214_
*801 _215_
*802 _216_
*803 _217_
*804 _218_
*805 _219_
*806 _220_
*807 _221_
*808 _222_
*809 _223_
*810 _224_
*811 _225_
*812 _226_
*813 _227_
*814 _228_
*815 _229_
*816 _230_
*817 _231_
*818 _232_
*819 _233_
*820 _234_
*821 _235_
*822 _236_
*823 _237_
*824 _238_
*825 _239_
*826 _240_
*827 _241_
*828 _242_
*829 _243_
*830 _244_
*831 _245_
*832 _246_
*833 _247_
*834 _248_
*835 _249_
*836 _250_
*837 _251_
*838 _252_
*839 _253_
*840 _254_
*841 _255_
*842 _256_
*843 _257_
*844 _258_
*845 _259_
*846 _260_
*847 _261_
*848 _262_
*849 _263_
*850 _264_
*851 _265_
*852 _266_
*853 _267_
*854 _268_
*855 _269_
*856 _270_
*857 _271_
*858 _272_
*859 _273_
*860 _274_
*861 _275_
*862 _276_
*863 _277_
*864 _278_
*865 _279_
*866 _280_
*867 _281_
*868 _282_
*869 _283_
*870 _284_
*871 _285_
*872 _286_
*873 _287_
*874 _288_
*875 _289_
*876 _290_
*877 _291_
*878 _292_
*879 _293_
*880 _294_
*881 _295_
*882 _296_
*883 _297_
*884 _298_
*885 _299_
*886 _300_
*887 _301_
*888 _302_
*889 _303_
*890 _304_
*891 _305_
*892 _306_
*893 _307_
*894 _308_
*895 _309_
*896 _310_
*897 _311_
*898 _312_
*899 _313_
*900 _314_
*901 _315_
*902 _316_
*903 _317_
*904 _318_
*905 _319_
*906 _320_
*907 _321_
*908 _322_
*909 _323_
*910 _324_
*911 _325_
*912 _326_
*913 _327_
*914 _328_
*915 _329_
*916 _330_
*917 _331_
*918 _332_
*919 _333_
*920 _334_
*921 _335_
*922 _336_
*923 _337_
*924 _338_
*925 _339_
*926 _340_
*927 _341_
*928 _342_
*929 _343_
*930 _344_
*931 _345_
*932 _346_
*933 _347_
*934 _348_
*935 _349_
*936 _350_
*937 _351_
*938 _352_
*939 _353_
*940 _354_
*941 _355_
*942 _356_
*943 _357_
*944 _358_
*945 _359_
*946 _360_
*947 _361_
*948 _362_
*949 _363_
*950 _364_
*951 _365_
*952 _366_
*953 _367_
*954 _368_
*955 _369_
*956 _370_
*957 _371_
*958 _372_
*959 _373_
*960 _374_
*961 _375_
*962 _376_
*963 _376__32
*964 _377_
*965 _377__33
*966 _378_
*967 clkbuf_0_clk_CPU
*968 clkbuf_1_0__f_clk_CPU
*969 clkbuf_1_1__f_clk_CPU
*970 input1
*971 input10
*972 input11
*973 input12
*974 input13
*975 input14
*976 input15
*977 input16
*978 input17
*979 input18
*980 input2
*981 input3
*982 input4
*983 input5
*984 input6
*985 input7
*986 input8
*987 input9
*988 output19
*989 output20
*990 output21
*991 output22
*992 output23
*993 output24
*994 output25
*995 output26
*996 output27
*997 output28
*998 output29
*999 output30
*1000 output31

*PORTS
DATA_IN_Rx I
DATA_IN_Tx[0] I
DATA_IN_Tx[1] I
DATA_IN_Tx[2] I
DATA_IN_Tx[3] I
DATA_IN_Tx[4] I
DATA_IN_Tx[5] I
DATA_IN_Tx[6] I
DATA_IN_Tx[7] I
DATA_OUT_Rx[0] O
DATA_OUT_Rx[1] O
DATA_OUT_Rx[2] O
DATA_OUT_Rx[3] O
DATA_OUT_Rx[4] O
DATA_OUT_Rx[5] O
DATA_OUT_Rx[6] O
DATA_OUT_Rx[7] O
DATA_OUT_Rx[8] O
DATA_OUT_Rx[9] O
DATA_OUT_Tx O
EN I
IRQ_Rx O
IRQ_Tx O
RST I
UART_AVAIL O
UART_BITS I
UART_PARITY I
UART_WRITE I
bitrate[0] I
bitrate[1] I
bitrate[2] I
bitrate[3] I
clk_CPU I
uart_clock O

*D_NET *1 0.000869724
*CONN
*P DATA_IN_Rx I
*I *970:A I *D sky130_fd_sc_hd__buf_2
*CAP
1 DATA_IN_Rx 0.000338709
2 *970:A 0.000338709
3 *970:A *888:A1 6.18754e-05
4 *970:A *974:A 0
5 *970:A *980:A 8.86101e-05
6 *970:A *187:24 4.18203e-05
*RES
1 DATA_IN_Rx *970:A 7.62503 
*END

*D_NET *2 0.000671017
*CONN
*P DATA_IN_Tx[0] I
*I *980:A I *D sky130_fd_sc_hd__clkbuf_1
*CAP
1 DATA_IN_Tx[0] 0.000213688
2 *980:A 0.000213688
3 *980:A *888:A1 5.78448e-05
4 *980:A *888:B2 3.04982e-05
5 *980:A *981:A 6.6688e-05
6 *970:A *980:A 8.86101e-05
*RES
1 DATA_IN_Tx[0] *980:A 6.63177 
*END

*D_NET *3 0.000636188
*CONN
*P DATA_IN_Tx[1] I
*I *981:A I *D sky130_fd_sc_hd__clkbuf_1
*CAP
1 DATA_IN_Tx[1] 0.000264108
2 *981:A 0.000264108
3 *981:A *888:B2 4.12849e-05
4 *981:A *982:A 0
5 *980:A *981:A 6.6688e-05
*RES
1 DATA_IN_Tx[1] *981:A 6.0289 
*END

*D_NET *4 0.00103462
*CONN
*P DATA_IN_Tx[2] I
*I *982:A I *D sky130_fd_sc_hd__clkbuf_1
*CAP
1 DATA_IN_Tx[2] 0.000436354
2 *982:A 0.000436354
3 *982:A *883:A 6.57454e-05
4 *982:A *883:B 4.23703e-05
5 *982:A *883:C 1.70906e-05
6 *982:A *884:B1 2.49909e-05
7 *982:A *888:B2 1.17185e-05
8 *982:A *983:A 0
9 *981:A *982:A 0
*RES
1 DATA_IN_Tx[2] *982:A 8.89677 
*END

*D_NET *5 0.000624737
*CONN
*P DATA_IN_Tx[3] I
*I *983:A I *D sky130_fd_sc_hd__clkbuf_1
*CAP
1 DATA_IN_Tx[3] 0.000266198
2 *983:A 0.000266198
3 *983:A *888:B2 6.63219e-06
4 *983:A *984:A 8.57075e-05
5 *982:A *983:A 0
*RES
1 DATA_IN_Tx[3] *983:A 6.09503 
*END

*D_NET *6 0.000475143
*CONN
*P DATA_IN_Tx[4] I
*I *984:A I *D sky130_fd_sc_hd__clkbuf_1
*CAP
1 DATA_IN_Tx[4] 0.000186744
2 *984:A 0.000186744
3 *984:A *888:B2 1.59477e-05
4 *984:A *985:A 0
5 *983:A *984:A 8.57075e-05
*RES
1 DATA_IN_Tx[4] *984:A 5.10177 
*END

*D_NET *7 0.000469822
*CONN
*P DATA_IN_Tx[5] I
*I *985:A I *D sky130_fd_sc_hd__clkbuf_1
*CAP
1 DATA_IN_Tx[5] 0.000234911
2 *985:A 0.000234911
3 *985:A *887:A3 0
4 *985:A *986:A 0
5 *984:A *985:A 0
*RES
1 DATA_IN_Tx[5] *985:A 5.35677 
*END

*D_NET *8 0.00063921
*CONN
*P DATA_IN_Tx[6] I
*I *986:A I *D sky130_fd_sc_hd__clkbuf_1
*CAP
1 DATA_IN_Tx[6] 0.000314035
2 *986:A 0.000314035
3 *986:A *987:A 1.11399e-05
4 *985:A *986:A 0
*RES
1 DATA_IN_Tx[6] *986:A 7.8543 
*END

*D_NET *9 0.000796734
*CONN
*P DATA_IN_Tx[7] I
*I *987:A I *D sky130_fd_sc_hd__clkbuf_1
*CAP
1 DATA_IN_Tx[7] 0.000345657
2 *987:A 0.000345657
3 *987:A *828:B 0
4 *987:A *828:C_N 9.428e-05
5 *987:A *886:B 0
6 *987:A *976:A 0
7 *986:A *987:A 1.11399e-05
*RES
1 DATA_IN_Tx[7] *987:A 7.39677 
*END

*D_NET *10 0.000574098
*CONN
*P DATA_OUT_Rx[0] O
*I *988:X O *D sky130_fd_sc_hd__buf_1
*CAP
1 DATA_OUT_Rx[0] 0.000232726
2 *988:X 0.000232726
3 DATA_OUT_Rx[0] DATA_OUT_Rx[1] 0
4 DATA_OUT_Rx[0] IRQ_Tx 0
5 DATA_OUT_Rx[0] *989:A 0.000108647
*RES
1 *988:X DATA_OUT_Rx[0] 5.86677 
*END

*D_NET *11 0.000581969
*CONN
*P DATA_OUT_Rx[1] O
*I *989:X O *D sky130_fd_sc_hd__buf_1
*CAP
1 DATA_OUT_Rx[1] 0.000236661
2 *989:X 0.000236661
3 DATA_OUT_Rx[1] DATA_OUT_Rx[2] 0
4 DATA_OUT_Rx[1] *989:A 0.000108647
5 DATA_OUT_Rx[0] DATA_OUT_Rx[1] 0
*RES
1 *989:X DATA_OUT_Rx[1] 5.86677 
*END

*D_NET *12 0.000456529
*CONN
*P DATA_OUT_Rx[2] O
*I *990:X O *D sky130_fd_sc_hd__buf_1
*CAP
1 DATA_OUT_Rx[2] 0.000228265
2 *990:X 0.000228265
3 DATA_OUT_Rx[2] DATA_OUT_Rx[3] 0
4 DATA_OUT_Rx[2] *211:275 0
5 DATA_OUT_Rx[1] DATA_OUT_Rx[2] 0
*RES
1 *990:X DATA_OUT_Rx[2] 5.35677 
*END

*D_NET *13 0.00137264
*CONN
*P DATA_OUT_Rx[3] O
*I *991:X O *D sky130_fd_sc_hd__buf_1
*CAP
1 DATA_OUT_Rx[3] 0.000591649
2 *991:X 0.000591649
3 DATA_OUT_Rx[3] DATA_OUT_Rx[4] 0
4 DATA_OUT_Rx[3] *872:B1 0
5 DATA_OUT_Rx[3] *875:B1 5.21174e-05
6 DATA_OUT_Rx[3] *991:A 2.75145e-05
7 DATA_OUT_Rx[3] *144:47 0
8 DATA_OUT_Rx[3] *211:273 0.000109714
9 DATA_OUT_Rx[3] *264:216 0
10 DATA_OUT_Rx[2] DATA_OUT_Rx[3] 0
*RES
1 *991:X DATA_OUT_Rx[3] 9.41137 
*END

*D_NET *14 0.000549727
*CONN
*P DATA_OUT_Rx[4] O
*I *992:X O *D sky130_fd_sc_hd__buf_1
*CAP
1 DATA_OUT_Rx[4] 0.000244518
2 *992:X 0.000244518
3 DATA_OUT_Rx[4] DATA_OUT_Rx[5] 0
4 DATA_OUT_Rx[4] *992:A 6.06899e-05
5 DATA_OUT_Rx[3] DATA_OUT_Rx[4] 0
*RES
1 *992:X DATA_OUT_Rx[4] 5.86677 
*END

*D_NET *15 0.000541239
*CONN
*P DATA_OUT_Rx[5] O
*I *993:X O *D sky130_fd_sc_hd__buf_1
*CAP
1 DATA_OUT_Rx[5] 0.000251289
2 *993:X 0.000251289
3 DATA_OUT_Rx[5] DATA_OUT_Rx[6] 0
4 DATA_OUT_Rx[5] *994:A 0
5 DATA_OUT_Rx[5] *995:A 3.86607e-05
6 DATA_OUT_Rx[4] DATA_OUT_Rx[5] 0
*RES
1 *993:X DATA_OUT_Rx[5] 5.86677 
*END

*D_NET *16 0.000535095
*CONN
*P DATA_OUT_Rx[6] O
*I *994:X O *D sky130_fd_sc_hd__buf_1
*CAP
1 DATA_OUT_Rx[6] 0.000237203
2 *994:X 0.000237203
3 DATA_OUT_Rx[6] DATA_OUT_Rx[7] 0
4 DATA_OUT_Rx[6] *995:A 6.06899e-05
5 DATA_OUT_Rx[5] DATA_OUT_Rx[6] 0
*RES
1 *994:X DATA_OUT_Rx[6] 5.86677 
*END

*D_NET *17 0.000535095
*CONN
*P DATA_OUT_Rx[7] O
*I *995:X O *D sky130_fd_sc_hd__buf_1
*CAP
1 DATA_OUT_Rx[7] 0.000237203
2 *995:X 0.000237203
3 DATA_OUT_Rx[7] DATA_OUT_Rx[8] 0
4 DATA_OUT_Rx[7] *995:A 6.06899e-05
5 DATA_OUT_Rx[6] DATA_OUT_Rx[7] 0
*RES
1 *995:X DATA_OUT_Rx[7] 5.86677 
*END

*D_NET *18 0.000557279
*CONN
*P DATA_OUT_Rx[8] O
*I *962:X O *D sky130_fd_sc_hd__buf_2
*CAP
1 DATA_OUT_Rx[8] 0.000265796
2 *962:X 0.000265796
3 DATA_OUT_Rx[8] DATA_OUT_Rx[9] 0
4 DATA_OUT_Rx[8] *962:A 2.56866e-05
5 DATA_OUT_Rx[7] DATA_OUT_Rx[8] 0
*RES
1 *962:X DATA_OUT_Rx[8] 5.27657 
*END

*D_NET *19 0.00118336
*CONN
*P DATA_OUT_Rx[9] O
*I *964:X O *D sky130_fd_sc_hd__buf_2
*CAP
1 DATA_OUT_Rx[9] 0.00055126
2 *964:X 0.00055126
3 DATA_OUT_Rx[9] *964:A 8.08439e-05
4 DATA_OUT_Rx[8] DATA_OUT_Rx[9] 0
*RES
1 *964:X DATA_OUT_Rx[9] 8.8829 
*END

*D_NET *20 0.000560772
*CONN
*P DATA_OUT_Tx O
*I *996:X O *D sky130_fd_sc_hd__buf_1
*CAP
1 DATA_OUT_Tx 0.00025836
2 *996:X 0.00025836
3 DATA_OUT_Tx IRQ_Rx 0
4 DATA_OUT_Tx IRQ_Tx 0
5 DATA_OUT_Tx *878:A1 1.73506e-05
6 DATA_OUT_Tx *988:A 2.67022e-05
*RES
1 *996:X DATA_OUT_Tx 5.86677 
*END

*D_NET *21 0.000714727
*CONN
*P EN I
*I *971:A I *D sky130_fd_sc_hd__buf_1
*CAP
1 EN 0.000315149
2 *971:A 0.000315149
3 *971:A *967:A 7.81244e-05
4 *971:A *972:A 6.30563e-06
5 *971:A *211:22 0
*RES
1 EN *971:A 6.60503 
*END

*D_NET *22 0.000544207
*CONN
*P IRQ_Rx O
*I *997:X O *D sky130_fd_sc_hd__buf_1
*CAP
1 IRQ_Rx 0.000272103
2 *997:X 0.000272103
3 IRQ_Rx UART_AVAIL 0
4 DATA_OUT_Tx IRQ_Rx 0
*RES
1 *997:X IRQ_Rx 5.86677 
*END

*D_NET *23 0.000571907
*CONN
*P IRQ_Tx O
*I *998:X O *D sky130_fd_sc_hd__buf_1
*CAP
1 IRQ_Tx 0.000240087
2 *998:X 0.000240087
3 IRQ_Tx *221:10 7.23602e-05
4 IRQ_Tx *228:33 1.93728e-05
5 DATA_OUT_Rx[0] IRQ_Tx 0
6 DATA_OUT_Tx IRQ_Tx 0
*RES
1 *998:X IRQ_Tx 5.86677 
*END

*D_NET *24 0.00052412
*CONN
*P RST I
*I *972:A I *D sky130_fd_sc_hd__buf_12
*CAP
1 RST 0.000258907
2 *972:A 0.000258907
3 *971:A *972:A 6.30563e-06
*RES
1 RST *972:A 6.8343 
*END

*D_NET *25 0.00053677
*CONN
*P UART_AVAIL O
*I *999:X O *D sky130_fd_sc_hd__buf_1
*CAP
1 UART_AVAIL 0.000268385
2 *999:X 0.000268385
3 UART_AVAIL uart_clock 0
4 IRQ_Rx UART_AVAIL 0
*RES
1 *999:X UART_AVAIL 5.86677 
*END

*D_NET *26 0.000911218
*CONN
*P UART_BITS I
*I *973:A I *D sky130_fd_sc_hd__clkbuf_1
*CAP
1 UART_BITS 0.000310307
2 *973:A 0.000310307
3 *973:A *768:B1 0.000207016
4 *973:A *974:A 5.33505e-05
5 *973:A *975:A 0
6 *973:A *187:26 3.02377e-05
*RES
1 UART_BITS *973:A 8.0435 
*END

*D_NET *27 0.00102614
*CONN
*P UART_PARITY I
*I *974:A I *D sky130_fd_sc_hd__clkbuf_1
*CAP
1 UART_PARITY 0.000329503
2 *974:A 0.000329503
3 *974:A *887:B1 0.000108941
4 *974:A *187:24 3.09233e-05
5 *974:A *187:26 0.000173916
6 *970:A *974:A 0
7 *973:A *974:A 5.33505e-05
*RES
1 UART_PARITY *974:A 7.16543 
*END

*D_NET *28 0.000476565
*CONN
*P UART_WRITE I
*I *975:A I *D sky130_fd_sc_hd__clkbuf_1
*CAP
1 UART_WRITE 0.000213598
2 *975:A 0.000213598
3 *975:A *771:A1 4.11685e-05
4 *975:A *967:A 8.201e-06
5 *973:A *975:A 0
*RES
1 UART_WRITE *975:A 5.10177 
*END

*D_NET *31 0.000674251
*CONN
*P bitrate[0] I
*I *976:A I *D sky130_fd_sc_hd__buf_4
*CAP
1 bitrate[0] 0.000334459
2 *976:A 0.000334459
3 *976:A *828:C_N 0
4 *976:A *841:C 0
5 *976:A *977:A 5.33311e-06
6 *987:A *976:A 0
*RES
1 bitrate[0] *976:A 8.1093 
*END

*D_NET *32 0.000539276
*CONN
*P bitrate[1] I
*I *977:A I *D sky130_fd_sc_hd__buf_4
*CAP
1 bitrate[1] 0.000264305
2 *977:A 0.000264305
3 *977:A *978:A 5.33311e-06
4 *976:A *977:A 5.33311e-06
*RES
1 bitrate[1] *977:A 6.8343 
*END

*D_NET *33 0.000690144
*CONN
*P bitrate[2] I
*I *978:A I *D sky130_fd_sc_hd__clkbuf_4
*CAP
1 bitrate[2] 0.000338067
2 *978:A 0.000338067
3 *978:A *979:A 8.67624e-06
4 *977:A *978:A 5.33311e-06
*RES
1 bitrate[2] *978:A 7.9443 
*END

*D_NET *34 0.00087676
*CONN
*P bitrate[3] I
*I *979:A I *D sky130_fd_sc_hd__buf_2
*CAP
1 bitrate[3] 0.000434042
2 *979:A 0.000434042
3 *978:A *979:A 8.67624e-06
*RES
1 bitrate[3] *979:A 6.47137 
*END

*D_NET *35 0.00835149
*CONN
*P clk_CPU I
*I *967:A I *D sky130_fd_sc_hd__clkbuf_16
*CAP
1 clk_CPU 0.0034287
2 *967:A 0.0034287
3 *967:A *903:A 0
4 *967:A *904:A1 0.000160658
5 *967:A *904:A2 0.000100057
6 *967:A *906:A 2.42236e-05
7 *967:A *916:A3 3.42142e-05
8 *967:A *925:B1 0.000254296
9 *967:A *952:RESET_B 9.11811e-05
10 *967:A *959:RESET_B 0.000143465
11 *967:A *998:A 5.20968e-05
12 *967:A *165:51 0.000168688
13 *967:A *165:64 1.52491e-05
14 *967:A *211:153 4.06643e-05
15 *967:A *245:67 0.000141599
16 *967:A *247:10 0
17 *967:A *247:23 0
18 *967:A *247:36 0
19 *967:A *247:47 0
20 *967:A *249:10 6.55328e-05
21 *967:A *249:21 0.000115847
22 *971:A *967:A 7.81244e-05
23 *975:A *967:A 8.201e-06
*RES
1 clk_CPU *967:A 29.6843 
*END

*D_NET *36 0.000542309
*CONN
*P uart_clock O
*I *1000:X O *D sky130_fd_sc_hd__buf_1
*CAP
1 uart_clock 0.000271155
2 *1000:X 0.000271155
3 UART_AVAIL uart_clock 0
*RES
1 *1000:X uart_clock 5.86677 
*END

*D_NET *37 0.000432151
*CONN
*I *936:D I *D sky130_fd_sc_hd__dfrtp_4
*I *865:Y O *D sky130_fd_sc_hd__o2bb2ai_1
*CAP
1 *936:D 0.000100043
2 *865:Y 0.000100043
3 *936:D *865:A1_N 4.80285e-05
4 *936:D *948:RESET_B 0.000118513
5 *936:D *131:14 6.5525e-05
*RES
1 *865:Y *936:D 9.375 
*END

*D_NET *38 0.00188807
*CONN
*I *937:D I *D sky130_fd_sc_hd__dfrtp_1
*I *867:X O *D sky130_fd_sc_hd__a32o_1
*CAP
1 *937:D 0.000370604
2 *867:X 0.000370604
3 *937:D *867:A2 3.09088e-05
4 *937:D *867:A3 2.75229e-05
5 *937:D *867:B2 0.000265328
6 *937:D *869:A2 0.000162318
7 *937:D *869:B1 0.00029966
8 *937:D *938:CLK 0
9 *937:D *938:D 0.000296088
10 *937:D *957:CLK 0
11 *937:D *60:67 3.00381e-05
12 *937:D *209:133 3.50033e-05
*RES
1 *867:X *937:D 18.48 
*END

*D_NET *39 0.000802606
*CONN
*I *938:D I *D sky130_fd_sc_hd__dfrtp_1
*I *869:X O *D sky130_fd_sc_hd__a32o_1
*CAP
1 *938:D 0.000253259
2 *869:X 0.000253259
3 *938:D *957:CLK 0
4 *937:D *938:D 0.000296088
*RES
1 *869:X *938:D 11.76 
*END

*D_NET *40 0.000352472
*CONN
*I *939:D I *D sky130_fd_sc_hd__dfrtp_1
*I *872:X O *D sky130_fd_sc_hd__o211a_1
*CAP
1 *939:D 0.00013601
2 *872:X 0.00013601
3 *939:D *872:A1 2.11084e-05
4 *939:D *939:RESET_B 2.75145e-05
5 *939:D *208:101 3.18293e-05
6 *939:D *211:228 0
*RES
1 *872:X *939:D 9.48 
*END

*D_NET *41 0.000278727
*CONN
*I *940:D I *D sky130_fd_sc_hd__dfrtp_1
*I *875:X O *D sky130_fd_sc_hd__o211a_1
*CAP
1 *940:D 0.000120033
2 *875:X 0.000120033
3 *940:D *872:B1 0
4 *940:D *875:A1 3.86607e-05
5 *940:D *208:82 0
*RES
1 *875:X *940:D 9.03 
*END

*D_NET *42 0.000405115
*CONN
*I *941:D I *D sky130_fd_sc_hd__dfstp_1
*I *878:X O *D sky130_fd_sc_hd__a211o_1
*CAP
1 *941:D 4.97649e-05
2 *878:X 4.97649e-05
3 *941:D *878:B1 2.49909e-05
4 *941:D *924:A1 0.000117825
5 *941:D *998:A 4.66108e-05
6 *941:D *60:23 0.000116158
*RES
1 *878:X *941:D 9.03 
*END

*D_NET *43 0.000719789
*CONN
*I *942:D I *D sky130_fd_sc_hd__dfrtp_1
*I *881:X O *D sky130_fd_sc_hd__and3_1
*CAP
1 *942:D 0.000102584
2 *881:X 0.000102584
3 *942:D *881:B 3.86607e-05
4 *942:D *60:36 0.000265924
5 *942:D *208:31 4.284e-05
6 *942:D *211:294 2.75145e-05
7 *942:D *228:33 4.66108e-05
8 *942:D *264:251 9.30717e-05
*RES
1 *881:X *942:D 10.815 
*END

*D_NET *44 0.000742569
*CONN
*I *947:D I *D sky130_fd_sc_hd__dfstp_1
*I *891:X O *D sky130_fd_sc_hd__o32a_1
*CAP
1 *947:D 0.000212515
2 *891:X 0.000212515
3 *947:D *891:B2 0.000264471
4 *947:D *207:59 5.30673e-05
*RES
1 *891:X *947:D 7.79 
*END

*D_NET *45 0.000228346
*CONN
*I *948:D I *D sky130_fd_sc_hd__dfrtp_1
*I *893:X O *D sky130_fd_sc_hd__o21a_1
*CAP
1 *948:D 7.45642e-05
2 *893:X 7.45642e-05
3 *948:D *886:B 0
4 *948:D *948:CLK 0
5 *948:D *242:10 7.06865e-05